*SPEF "1481-1998"
*DESIGN "fp_adder"
*DATE "Sun Jun  1 10:36:55 2025"
*VENDOR "Synopsys, Inc."
*PROGRAM "icc2 /home/synopsys_install/icc2/W-2024.09/linux64/nwtn/bin/icc2_exec"
*VERSION "W-2024.09 Aug 25, 2024"
*DESIGN_FLOW "ICC2 SPEF DR"
*DIVIDER /
*DELIMITER :
*BUS_DELIMITER [ ]
*T_UNIT 1 NS
*C_UNIT 1 FF
*R_UNIT 1 OHM
*L_UNIT 1 HENRY

// XY_UNIT 1 UM
// PARASITIC_TECH p1 at 125.000 degree

*NAME_MAP
*1 clk
*2 a[31]
*3 a[30]
*4 a[29]
*5 a[28]
*6 a[27]
*7 a[26]
*8 a[25]
*9 a[24]
*10 a[23]
*11 a[22]
*12 a[21]
*13 a[20]
*14 a[19]
*15 a[18]
*16 a[17]
*17 a[16]
*18 a[15]
*19 a[14]
*20 a[13]
*21 a[12]
*22 a[11]
*23 a[10]
*24 a[9]
*25 a[8]
*26 a[7]
*27 a[6]
*28 a[5]
*29 a[4]
*30 a[3]
*31 a[2]
*32 a[1]
*33 a[0]
*34 b[31]
*35 b[30]
*36 b[29]
*37 b[28]
*38 b[27]
*39 b[26]
*40 b[25]
*41 b[24]
*42 b[23]
*43 b[22]
*44 b[21]
*45 b[20]
*46 b[19]
*47 b[18]
*48 b[17]
*49 b[16]
*50 b[15]
*51 b[14]
*52 b[13]
*53 b[12]
*54 b[11]
*55 b[10]
*56 b[9]
*57 b[8]
*58 b[7]
*59 b[6]
*60 b[5]
*61 b[4]
*62 b[3]
*63 b[2]
*64 b[1]
*65 b[0]
*66 result[31]
*67 result[30]
*68 result[29]
*69 result[28]
*70 result[27]
*71 result[26]
*72 result[25]
*73 result[24]
*74 result[23]
*75 result[22]
*76 result[21]
*77 result[20]
*78 result[19]
*79 result[18]
*80 result[17]
*81 result[16]
*82 result[15]
*83 result[14]
*84 result[13]
*85 result[12]
*86 result[11]
*87 result[10]
*88 result[9]
*89 result[8]
*90 result[7]
*91 result[6]
*92 result[5]
*93 result[4]
*94 result[3]
*95 result[2]
*96 result[1]
*97 result[0]
*98 VDD
*99 VSS
*100 result_reg[30]
*101 result_reg[29]
*102 result_reg[28]
*103 result_reg[27]
*104 result_reg[26]
*105 result_reg[25]
*106 result_reg[24]
*107 result_reg[23]
*108 result_reg[22]
*109 result_reg[21]
*110 result_reg[20]
*111 result_reg[19]
*112 result_reg[18]
*113 result_reg[17]
*114 result_reg[16]
*115 result_reg[15]
*116 result_reg[14]
*117 result_reg[13]
*118 result_reg[12]
*119 result_reg[11]
*120 result_reg[10]
*121 result_reg[9]
*122 result_reg[8]
*123 result_reg[7]
*124 result_reg[6]
*125 result_reg[5]
*126 result_reg[4]
*127 result_reg[3]
*128 result_reg[2]
*129 result_reg[1]
*130 result_reg[0]
*131 intadd_3/U23
*132 intadd_3/U22
*133 intadd_3/U21
*134 intadd_3/U20
*135 intadd_3/U19
*136 intadd_3/U18
*137 intadd_3/U17
*138 intadd_3/U16
*139 intadd_3/U15
*140 intadd_3/U14
*141 intadd_3/U13
*142 intadd_3/U12
*143 intadd_3/U11
*144 intadd_3/U10
*145 intadd_3/U9
*146 intadd_3/U8
*147 intadd_3/U7
*148 intadd_3/U6
*149 intadd_3/U5
*150 intadd_3/U4
*151 intadd_3/U3
*152 intadd_3/U2
*153 result_reg[31]
*154 HFSINV_91_21
*155 HFSINV_159_22
*156 HFSINV_179_23
*157 HFSINV_69_24
*158 HFSINV_90_25
*159 HFSINV_124_26
*160 HFSINV_234_18
*161 HFSINV_210_19
*162 HFSINV_64_20
*163 HFSINV_230_27
*164 HFSINV_232_28
*165 HFSINV_223_29
*166 HFSINV_430_55
*167 HFSINV_231_56
*168 HFSINV_80_17
*169 HFSINV_188_30
*170 HFSINV_138_14
*171 HFSINV_112_15
*172 HFSINV_130_16
*173 HFSINV_181_31
*174 HFSINV_181_32
*175 HFSINV_203_33
*176 HFSINV_242_3
*177 HFSINV_98_4
*178 HFSINV_106_13
*179 HFSINV_213_34
*180 HFSINV_117_5
*181 HFSINV_56_6
*182 HFSINV_49_9
*183 HFSINV_203_10
*184 HFSINV_128_11
*185 HFSINV_229_12
*186 HFSINV_171_35
*187 HFSINV_160_36
*188 HFSINV_275_50
*189 HFSINV_279_51
*190 HFSINV_68_37
*191 HFSINV_134_38
*192 HFSINV_57_52
*193 ctmTdsLR_1_381
*194 HFSINV_13_7
*195 ctmTdsLR_1_517
*196 HFSINV_156_39
*197 HFSINV_168_40
*198 HFSINV_91_41
*199 HFSINV_87_42
*200 HFSINV_126_43
*201 HFSINV_147_44
*202 HFSINV_130_45
*203 HFSINV_87_46
*204 HFSINV_163_47
*205 HFSINV_163_48
*206 HFSINV_181_49
*207 HFSINV_367_54
*208 HFSBUF_182_57
*209 HFSINV_586_58
*210 HFSINV_661_59
*211 HFSINV_421_61
*212 HFSINV_456_62
*213 HFSINV_1319_80
*214 ctmTdsLR_1_390
*215 HFSINV_613_66
*216 HFSINV_1916_73
*217 HFSBUF_3352_82
*218 ctmTdsLR_1_399
*219 HFSINV_2455_86
*220 HFSBUF_2387_87
*221 ctmTdsLR_2_382
*222 HFSINV_272_63
*223 U629
*224 HFSINV_592_65
*225 ctmTdsLR_1_391
*226 U429
*227 U432
*228 HFSINV_535_68
*229 HFSINV_741_69
*230 U547
*231 U436
*232 U438
*233 U440
*234 U441
*235 U442
*236 U443
*237 U444
*238 U445
*239 HFSINV_669_71
*240 ctmTdsLR_1_400
*241 ctmTdsLR_1_392
*242 U451
*243 HFSINV_243_75
*244 HFSBUF_1097_83
*245 HFSINV_110_76
*246 U515
*247 HFSINV_580_78
*248 U458
*249 HFSBUF_515_79
*250 U460
*251 U461
*252 HFSBUF_1267_81
*253 U550
*254 U464
*255 U465
*256 U469
*257 ctmTdsLR_1_401
*258 U472
*259 ctmTdsLR_2_402
*260 ctmTdsLR_1_385
*261 ctmTdsLR_1_379
*262 ctmTdsLR_2_380
*263 ctmTdsLR_2_386
*264 ctmTdsLR_1_403
*265 ctmTdsLR_1_388
*266 U489
*267 ctmTdsLR_1_389
*268 U491
*269 U492
*270 U493
*271 HFSINV_72_1
*272 ctmTdsLR_1_393
*273 ctmTdsLR_2_394
*274 ctmTdsLR_1_395
*275 ctmTdsLR_2_396
*276 ctmTdsLR_1_397
*277 ctmTdsLR_1_398
*278 ctmTdsLR_1_404
*279 U510
*280 U511
*281 ctmTdsLR_1_405
*282 U513
*283 U514
*284 U516
*285 U519
*286 U520
*287 U521
*288 ctmTdsLR_1_499
*289 U523
*290 ctmTdsLR_1_545
*291 ctmTdsLR_2_546
*292 ctmTdsLR_1_508
*293 ctmTdsLR_1_411
*294 U527
*295 U528
*296 U529
*297 ctmTdsLR_1_501
*298 ctmTdsLR_1_502
*299 U532
*300 U534
*301 ctmTdsLR_2_509
*302 ctmTdsLR_1_412
*303 ctmTdsLR_2_413
*304 ctmTdsLR_3_414
*305 ctmTdsLR_1_510
*306 ctmTdsLR_1_518
*307 ctmTdsLR_1_547
*308 U544
*309 U546
*310 ctmTdsLR_1_406
*311 U548
*312 U549
*313 ctmTdsLR_1_407
*314 ctmTdsLR_2_503
*315 ctmTdsLR_1_504
*316 U553
*317 ctmTdsLR_1_511
*318 ctmTdsLR_1_512
*319 U560
*320 ctmTdsLR_2_519
*321 ctmTdsLR_3_520
*322 U562
*323 ctmTdsLR_1_409
*324 ctmTdsLR_1_513
*325 ctmTdsLR_2_514
*326 ctmTdsLR_1_515
*327 U569
*328 U571
*329 U572
*330 ctmTdsLR_2_516
*331 ctmTdsLR_4_521
*332 U576
*333 ctmTdsLR_1_522
*334 U579
*335 ctmTdsLR_2_523
*336 U581
*337 ctmTdsLR_1_416
*338 ctmTdsLR_2_417
*339 ctmTdsLR_1_418
*340 U586
*341 U587
*342 U588
*343 U589
*344 U590
*345 U591
*346 U592
*347 U593
*348 U594
*349 U595
*350 U596
*351 U597
*352 ctmTdsLR_3_524
*353 ctmTdsLR_1_525
*354 ctmTdsLR_2_526
*355 ctmTdsLR_1_527
*356 U605
*357 U606
*358 U607
*359 HFSINV_171_2
*360 HFSINV_5_0
*361 U610
*362 ctmTdsLR_2_419
*363 U612
*364 ctmTdsLR_2_548
*365 ctmTdsLR_2_528
*366 ctmTdsLR_1_529
*367 ctmTdsLR_1_420
*368 ctmTdsLR_2_530
*369 U620
*370 ctmTdsLR_1_549
*371 ctmTdsLR_1_531
*372 ctmTdsLR_2_532
*373 ctmTdsLR_2_421
*374 ctmTdsLR_1_533
*375 U628
*376 ctmTdsLR_1_422
*377 ctmTdsLR_2_534
*378 ctmTdsLR_1_535
*379 ctmTdsLR_2_536
*380 ctmTdsLR_2_550
*381 ctmTdsLR_1_551
*382 ctmTdsLR_2_552
*383 U637
*384 U638
*385 U639
*386 ctmTdsLR_2_423
*387 ctmTdsLR_1_537
*388 ctmTdsLR_2_538
*389 ctmTdsLR_1_539
*390 ctmTdsLR_2_540
*391 ctmTdsLR_3_541
*392 ctmTdsLR_4_542
*393 ctmTdsLR_1_543
*394 ctmTdsLR_1_544
*395 ctmTdsLR_1_553
*396 ctmTdsLR_2_554
*397 ctmTdsLR_1_555
*398 ctmTdsLR_2_556
*399 ctmTdsLR_3_557
*400 ctmTdsLR_4_558
*401 U666
*402 U671
*403 U672
*404 U673
*405 U674
*406 U675
*407 U676
*408 U677
*409 U678
*410 U679
*411 U680
*412 U681
*413 U682
*414 U683
*415 U684
*416 U685
*417 U686
*418 ctmTdsLR_1_424
*419 U689
*420 U690
*421 U691
*422 U692
*423 U693
*424 U694
*425 U695
*426 U696
*427 U697
*428 U698
*429 U699
*430 U700
*431 U701
*432 U702
*433 U703
*434 U704
*435 U705
*436 U706
*437 U707
*438 U708
*439 U709
*440 U710
*441 U711
*442 U712
*443 U713
*444 U714
*445 U715
*446 U716
*447 U717
*448 U718
*449 ctmTdsLR_2_425
*450 U720
*451 U721
*452 U722
*453 U724
*454 U728
*455 U729
*456 U735
*457 U736
*458 U742
*459 U747
*460 U750
*461 U751
*462 U752
*463 U757
*464 U779
*465 U788
*466 U799
*467 U803
*468 U804
*469 U807
*470 U814
*471 U815
*472 U816
*473 U817
*474 U818
*475 U819
*476 U820
*477 U822
*478 U823
*479 U826
*480 U827
*481 U832
*482 U837
*483 U846
*484 U851
*485 U852
*486 U853
*487 U858
*488 U876
*489 U882
*490 U883
*491 U884
*492 U885
*493 U886
*494 U887
*495 U888
*496 U889
*497 U890
*498 U891
*499 U893
*500 U894
*501 U895
*502 U898
*503 U899
*504 U900
*505 ctmTdsLR_1_426
*506 ctmTdsLR_2_427
*507 U903
*508 U904
*509 U905
*510 U906
*511 U907
*512 U908
*513 U909
*514 U910
*515 U911
*516 U912
*517 ctmTdsLR_1_428
*518 ctmTdsLR_2_429
*519 U917
*520 U919
*521 U924
*522 U925
*523 U926
*524 ctmTdsLR_1_430
*525 U929
*526 U930
*527 U931
*528 U932
*529 U933
*530 U934
*531 U935
*532 U936
*533 U940
*534 U941
*535 U942
*536 ctmTdsLR_2_431
*537 ctmTdsLR_1_432
*538 U945
*539 U946
*540 U953
*541 U956
*542 U957
*543 U963
*544 U965
*545 U966
*546 U967
*547 U968
*548 U969
*549 ctmTdsLR_2_433
*550 ctmTdsLR_1_434
*551 U973
*552 ctmTdsLR_2_435
*553 ctmTdsLR_1_436
*554 U977
*555 U979
*556 ctmTdsLR_2_437
*557 ctmTdsLR_1_438
*558 U982
*559 U984
*560 U985
*561 U989
*562 U990
*563 U991
*564 U992
*565 U993
*566 ctmTdsLR_2_439
*567 ctmTdsLR_1_440
*568 ctmTdsLR_2_441
*569 ctmTdsLR_1_442
*570 ctmTdsLR_1_443
*571 U1000
*572 ctmTdsLR_2_444
*573 U1003
*574 U1005
*575 ctmTdsLR_1_445
*576 ctmTdsLR_2_446
*577 ctmTdsLR_1_447
*578 ctmTdsLR_2_448
*579 ctmTdsLR_1_449
*580 ctmTdsLR_2_450
*581 ctmTdsLR_1_451
*582 U1018
*583 U1019
*584 U1020
*585 U1021
*586 U1022
*587 U1023
*588 ctmTdsLR_2_452
*589 U1026
*590 U1027
*591 U1028
*592 ctmTdsLR_1_453
*593 ctmTdsLR_2_454
*594 ctmTdsLR_1_455
*595 ctmTdsLR_2_456
*596 ctmTdsLR_1_457
*597 ctmTdsLR_2_458
*598 ctmTdsLR_1_459
*599 ctmTdsLR_2_460
*600 ctmTdsLR_1_461
*601 ctmTdsLR_2_462
*602 ctmTdsLR_3_463
*603 ctmTdsLR_1_464
*604 ctmTdsLR_2_465
*605 ctmTdsLR_1_466
*606 ctmTdsLR_2_467
*607 ctmTdsLR_3_468
*608 ctmTdsLR_1_469
*609 ctmTdsLR_2_470
*610 ctmTdsLR_1_471
*611 ctmTdsLR_2_472
*612 ctmTdsLR_1_473
*613 ctmTdsLR_2_474
*614 ctmTdsLR_1_475
*615 ctmTdsLR_2_476
*616 ctmTdsLR_1_477
*617 ctmTdsLR_1_478
*618 ctmTdsLR_2_479
*619 ctmTdsLR_1_480
*620 ctmTdsLR_2_481
*621 ctmTdsLR_1_482
*622 ctmTdsLR_1_483
*623 ctmTdsLR_2_484
*624 ctmTdsLR_3_485
*625 ctmTdsLR_1_486
*626 ctmTdsLR_1_487
*627 ctmTdsLR_2_488
*628 ctmTdsLR_3_489
*629 ctmTdsLR_1_490
*630 ctmTdsLR_2_491
*631 ctmTdsLR_3_492
*632 ctmTdsLR_1_493
*633 ctmTdsLR_2_494
*634 ctmTdsLR_1_495
*635 ctmTdsLR_2_496
*636 ctmTdsLR_1_497
*637 ctmTdsLR_2_498
*638 HFSNET_0
*639 HFSNET_1
*640 intadd_3/A[21]
*641 intadd_3/A[20]
*642 intadd_3/A[19]
*643 intadd_3/A[18]
*644 intadd_3/A[17]
*645 intadd_3/A[16]
*646 intadd_3/A[15]
*647 intadd_3/A[14]
*648 intadd_3/A[13]
*649 intadd_3/A[12]
*650 intadd_3/A[11]
*651 intadd_3/A[10]
*652 intadd_3/A[9]
*653 intadd_3/A[8]
*654 intadd_3/A[7]
*655 intadd_3/A[6]
*656 intadd_3/A[5]
*657 intadd_3/A[4]
*658 intadd_3/A[3]
*659 intadd_3/A[2]
*660 intadd_3/A[1]
*661 intadd_3/B[21]
*662 intadd_3/B[20]
*663 intadd_3/B[19]
*664 intadd_3/B[18]
*665 intadd_3/B[16]
*666 intadd_3/B[15]
*667 intadd_3/B[14]
*668 intadd_3/B[13]
*669 intadd_3/B[12]
*670 intadd_3/B[11]
*671 intadd_3/B[10]
*672 intadd_3/B[9]
*673 intadd_3/B[8]
*674 intadd_3/B[7]
*675 intadd_3/B[6]
*676 intadd_3/B[5]
*677 intadd_3/B[4]
*678 intadd_3/B[3]
*679 intadd_3/B[2]
*680 intadd_3/B[1]
*681 intadd_3/CI
*682 intadd_3/SUM[21]
*683 intadd_3/SUM[20]
*684 intadd_3/SUM[19]
*685 intadd_3/SUM[18]
*686 intadd_3/SUM[17]
*687 intadd_3/SUM[16]
*688 intadd_3/SUM[15]
*689 intadd_3/SUM[14]
*690 intadd_3/SUM[13]
*691 intadd_3/SUM[12]
*692 intadd_3/SUM[11]
*693 intadd_3/SUM[10]
*694 intadd_3/SUM[9]
*695 intadd_3/SUM[8]
*696 intadd_3/SUM[7]
*697 intadd_3/SUM[6]
*698 intadd_3/SUM[5]
*699 intadd_3/SUM[4]
*700 intadd_3/SUM[3]
*701 intadd_3/SUM[2]
*702 intadd_3/SUM[1]
*703 intadd_3/SUM[0]
*704 intadd_3/n22
*705 intadd_3/n21
*706 intadd_3/n20
*707 intadd_3/n19
*708 intadd_3/n18
*709 intadd_3/n17
*710 intadd_3/n16
*711 intadd_3/n15
*712 intadd_3/n14
*713 intadd_3/n13
*714 intadd_3/n12
*715 intadd_3/n11
*716 intadd_3/n10
*717 intadd_3/n9
*718 intadd_3/n8
*719 intadd_3/n7
*720 intadd_3/n6
*721 intadd_3/n5
*722 intadd_3/n4
*723 intadd_3/n3
*724 intadd_3/n2
*725 intadd_3/n1
*726 HFSNET_21
*727 HFSNET_22
*728 HFSNET_23
*729 HFSNET_24
*730 HFSNET_25
*731 HFSNET_26
*732 HFSNET_18
*733 HFSNET_19
*734 HFSNET_20
*735 HFSNET_27
*736 HFSNET_28
*737 HFSNET_29
*738 HFSNET_55
*739 HFSNET_56
*740 HFSNET_17
*741 HFSNET_30
*742 HFSNET_14
*743 HFSNET_15
*744 HFSNET_16
*745 HFSNET_31
*746 HFSNET_32
*747 HFSNET_33
*748 HFSNET_3
*749 HFSNET_4
*750 HFSNET_13
*751 HFSNET_34
*752 HFSNET_5
*753 HFSNET_6
*754 HFSNET_9
*755 HFSNET_10
*756 HFSNET_11
*757 HFSNET_12
*758 HFSNET_35
*759 HFSNET_36
*760 HFSNET_50
*761 HFSNET_51
*762 HFSNET_37
*763 HFSNET_38
*764 HFSNET_52
*765 tmp_net1
*766 HFSNET_7
*767 HFSNET_39
*768 HFSNET_40
*769 HFSNET_41
*770 HFSNET_42
*771 HFSNET_43
*772 HFSNET_44
*773 HFSNET_45
*774 HFSNET_46
*775 HFSNET_47
*776 HFSNET_48
*777 HFSNET_49
*778 HFSNET_54
*779 HFSNET_57
*780 HFSNET_58
*781 HFSNET_59
*782 HFSNET_61
*783 HFSNET_62
*784 HFSNET_77
*785 HFSNET_71
*786 HFSNET_79
*787 HFSNET_2
*788 HFSNET_63
*789 HFSNET_64
*790 HFSNET_65
*791 HFSNET_67
*792 HFSNET_68
*793 HFSNET_69
*794 tmp_net3
*795 HFSNET_73
*796 HFSNET_74
*797 HFSNET_75
*798 HFSNET_76
*799 HFSNET_78
*800 HFSNET_80
*801 n344
*802 n346
*803 n348
*804 HFSNET_82
*805 HFSNET_83
*806 n355
*807 n363
*808 n366
*809 n367
*810 n368
*811 n369
*812 n370
*813 tmp_net4
*814 n381
*815 n382
*816 n385
*817 n386
*818 n387
*819 n392
*820 n393
*821 n399
*822 n400
*823 n401
*824 n402
*825 n403
*826 n404
*827 n405
*828 n406
*829 n407
*830 n408
*831 n409
*832 n410
*833 n411
*834 n412
*835 n413
*836 n414
*837 n415
*838 n416
*839 n417
*840 n418
*841 n419
*842 n420
*843 n421
*844 n422
*845 n423
*846 n424
*847 n426
*848 tmp_net5
*849 n432
*850 n433
*851 n446
*852 n447
*853 n448
*854 n471
*855 n472
*856 n473
*857 n474
*858 n475
*859 n476
*860 n477
*861 n479
*862 n480
*863 n481
*864 n482
*865 n483
*866 n484
*867 n485
*868 n486
*869 n487
*870 n488
*871 n489
*872 n490
*873 n491
*874 n492
*875 n493
*876 n494
*877 n495
*878 n496
*879 n497
*880 n498
*881 n499
*882 n500
*883 n501
*884 tmp_net6
*885 n503
*886 n504
*887 n511
*888 n512
*889 n522
*890 n524
*891 n525
*892 n526
*893 n543
*894 n548
*895 n549
*896 popt_net_0
*897 n564
*898 tmp_net7
*899 tmp_net8
*900 n569
*901 n570
*902 n574
*903 tmp_net9
*904 n580
*905 n581
*906 n582
*907 n583
*908 n584
*909 n585
*910 n586
*911 n587
*912 n588
*913 n589
*914 n591
*915 n593
*916 n594
*917 n595
*918 n599
*919 tmp_net10
*920 tmp_net11
*921 tmp_net12
*922 tmp_net13
*923 tmp_net14
*924 tmp_net15
*925 tmp_net16
*926 tmp_net17
*927 tmp_net18
*928 tmp_net19
*929 n622
*930 n623
*931 n624
*932 n626
*933 n628
*934 tmp_net20
*935 tmp_net21
*936 n634
*937 tmp_net22
*938 n638
*939 tmp_net23
*940 tmp_net24
*941 tmp_net25
*942 n648
*943 n651
*944 n655
*945 n656
*946 n657
*947 n658
*948 n659
*949 n660
*950 n661
*951 n662
*952 n663
*953 n664
*954 n665
*955 n666
*956 n667
*957 n668
*958 n669
*959 n671
*960 n673
*961 n675
*962 n676
*963 n677
*964 n678
*965 n679
*966 n680
*967 n681
*968 n682
*969 n683
*970 n684
*971 n685
*972 n686
*973 tmp_net26
*974 n689
*975 n690
*976 n693
*977 tmp_net27
*978 n695
*979 n699
*980 tmp_net28
*981 n701
*982 tmp_net29
*983 n703
*984 n704
*985 tmp_net30
*986 n707
*987 n708
*988 n709
*989 n710
*990 n711
*991 n712
*992 n713
*993 n714
*994 n715
*995 tmp_net31
*996 n717
*997 n720
*998 n722
*999 n723
*1000 n724
*1001 n725
*1002 n726
*1003 n727
*1004 n730
*1005 n731
*1006 n732
*1007 tmp_net32
*1008 tmp_net33
*1009 tmp_net34
*1010 n736
*1011 tmp_net35
*1012 tmp_net36
*1013 tmp_net37
*1014 n743
*1015 n744
*1016 n745
*1017 n746
*1018 n750
*1019 n751
*1020 n752
*1021 n753
*1022 tmp_net38
*1023 tmp_net39
*1024 n759
*1025 tmp_net40
*1026 n761
*1027 tmp_net41
*1028 n763
*1029 tmp_net42
*1030 n765
*1031 tmp_net43
*1032 n767
*1033 n769
*1034 n770
*1035 n771
*1036 n772
*1037 n773
*1038 n774
*1039 n775
*1040 n776
*1041 n781
*1042 n782
*1043 n783
*1044 n785
*1045 n786
*1046 n787
*1047 n789
*1048 n790
*1049 tmp_net44
*1050 n792
*1051 n794
*1052 n796
*1053 n797
*1054 n798
*1055 n799
*1056 n800
*1057 n801
*1058 n802
*1059 n803
*1060 n804
*1061 tmp_net45
*1062 n808
*1063 n809
*1064 n810
*1065 n811
*1066 n816
*1067 n817
*1068 n818
*1069 n819
*1070 n820
*1071 n821
*1072 n822
*1073 n823
*1074 tmp_net46
*1075 n825
*1076 n827
*1077 n829
*1078 n830
*1079 n831
*1080 n835
*1081 n838
*1082 n839
*1083 n842
*1084 tmp_net47
*1085 n844
*1086 tmp_net48
*1087 n846
*1088 n847
*1089 n848
*1090 n849
*1091 n850
*1092 tmp_net49
*1093 n852
*1094 n853
*1095 n854
*1096 n855
*1097 n856
*1098 n857
*1099 n859
*1100 n860
*1101 tmp_net50
*1102 n862
*1103 n863
*1104 n864
*1105 n865
*1106 tmp_net51
*1107 n869
*1108 n870
*1109 n871
*1110 mant_norm[22]
*1111 mant_norm[21]
*1112 mant_norm[20]
*1113 mant_norm[19]
*1114 mant_norm[18]
*1115 mant_norm[17]
*1116 mant_norm[16]
*1117 mant_norm[15]
*1118 mant_norm[14]
*1119 mant_norm[13]
*1120 mant_norm[12]
*1121 mant_norm[11]
*1122 mant_norm[10]
*1123 mant_norm[9]
*1124 mant_norm[8]
*1125 mant_norm[7]
*1126 mant_norm[6]
*1127 mant_norm[5]
*1128 mant_norm[4]
*1129 mant_norm[3]
*1130 mant_norm[2]
*1131 mant_norm[1]
*1132 mant_norm[0]
*1133 exp_norm[7]
*1134 exp_norm[6]
*1135 exp_norm[5]
*1136 exp_norm[4]
*1137 exp_norm[3]
*1138 exp_norm[2]
*1139 exp_norm[1]
*1140 exp_norm[0]
*1141 tmp_net52
*1142 tmp_net53
*1143 tmp_net54
*1144 tmp_net55
*1145 tmp_net56
*1146 tmp_net58
*1147 tmp_net59
*1148 tmp_net60
*1149 tmp_net61
*1150 tmp_net62
*1151 tmp_net63
*1152 tmp_net64
*1153 tmp_net65
*1154 tmp_net66
*1155 tmp_net67
*1156 tmp_net68
*1157 tmp_net69
*1158 tmp_net70
*1159 tmp_net71
*1160 tmp_net72
*1161 tmp_net73
*1162 tmp_net74
*1163 tmp_net75
*1164 tmp_net76
*1165 tmp_net77
*1166 tmp_net78
*1167 tmp_net79
*1168 tmp_net80
*1169 tmp_net81
*1170 tmp_net82
*1171 tmp_net83

*PORTS

*1 I *C 55.504 0.143
*2 I *C 63.104 0.143
*3 I *C 53.680 0.143
*4 I *C 53.072 0.143
*5 I *C 52.464 0.143
*6 I *C 49.424 0.143
*7 I *C 64.320 0.143
*8 I *C 51.856 0.143
*9 I *C 64.016 0.143
*10 I *C 61.280 0.143
*11 I *C 56.112 0.143
*12 I *C 56.416 0.143
*13 I *C 65.840 0.143
*14 I *C 56.720 0.143
*15 I *C 57.024 0.143
*16 I *C 55.048 0.143
*17 I *C 57.328 0.143
*18 I *C 59.000 0.143
*19 I *C 50.640 0.143
*20 I *C 57.632 0.143
*21 I *C 66.448 0.143
*22 I *C 60.976 0.143
*23 I *C 52.616 0.143
*24 I *C 49.576 0.143
*25 I *C 58.696 0.143
*26 I *C 63.712 0.143
*27 I *C 65.384 0.143
*28 I *C 59.152 0.143
*29 I *C 50.640 0.143
*30 I *C 51.856 0.143
*31 I *C 49.272 0.143
*32 I *C 58.544 0.143
*33 I *C 52.920 0.143
*34 I *C 64.624 0.143
*35 I *C 51.248 0.143
*36 I *C 58.392 0.143
*37 I *C 50.032 0.143
*38 I *C 60.520 0.143
*39 I *C 49.424 0.143
*40 I *C 55.352 0.143
*41 I *C 54.744 0.143
*42 I *C 54.440 0.143
*43 I *C 54.136 0.143
*44 I *C 64.624 0.143
*45 I *C 53.832 0.143
*46 I *C 53.528 0.143
*47 I *C 53.224 0.143
*48 I *C 56.720 0.143
*49 I *C 52.312 0.143
*50 I *C 52.008 0.143
*51 I *C 51.704 0.143
*52 I *C 51.400 0.143
*53 I *C 57.328 0.143
*54 I *C 51.096 0.143
*55 I *C 50.792 0.143
*56 I *C 60.976 0.143
*57 I *C 60.368 0.143
*58 I *C 49.880 0.143
*59 I *C 65.232 0.143
*60 I *C 63.408 0.143
*61 I *C 61.584 0.143
*62 I *C 59.760 0.143
*63 I *C 57.936 0.143
*64 I *C 57.936 0.143
*65 I *C 64.016 0.143
*66 O *C 64.776 0.143
*67 O *C 56.112 0.143
*68 O *C 54.896 0.143
*69 O *C 60.216 0.143
*70 O *C 61.736 0.143
*71 O *C 51.856 0.143
*72 O *C 49.424 0.143
*73 O *C 62.040 0.143
*74 O *C 62.800 0.143
*75 O *C 62.344 0.143
*76 O *C 62.192 0.143
*77 O *C 50.488 0.143
*78 O *C 67.360 0.143
*79 O *C 65.080 0.143
*80 O *C 67.968 0.143
*81 O *C 67.664 0.143
*82 O *C 66.144 0.143
*83 O *C 59.608 0.143
*84 O *C 54.288 0.143
*85 O *C 53.680 0.143
*86 O *C 55.808 0.143
*87 O *C 50.184 0.143
*88 O *C 55.504 0.143
*89 O *C 59.912 0.143
*90 O *C 59.304 0.143
*91 O *C 66.144 0.143
*92 O *C 67.360 0.143
*93 O *C 63.408 0.143
*94 O *C 67.056 0.143
*95 O *C 66.752 0.143
*96 O *C 62.800 0.143
*97 O *C 66.752 0.143
*98 I *C 34.604 23.736
*99 I *C 34.604 23.736

*D_NET *638 0.3662136 //LENGTH 3.181 LUMPCC 0 DR

*CONN
*I *360:Y O *L 0 *C 53.273 16.466
*I *361:A3 I *L 0.590351 *C 53.072 19.328
*N *638:2 *C 53.073 19.328
*N *638:3 *C 53.224 19.328
*N *638:4 *C 53.224 16.454

*CAP
0 *360:Y 0.001
1 *361:A3 0.001
2 *638:2 0.004875458
3 *638:3 0.1859117
4 *638:4 0.1734264

*RES
0 *360:Y *638:4 1
1 *638:2 *361:A3 1
2 *638:4 *638:3 5.133036
3 *638:3 *638:2 0.2696429

*END

*D_NET *639 0.4472212 //LENGTH 5.099 LUMPCC 0 DR

*CONN
*I *271:Y O *L 0 *C 45.320 41.064
*I *315:A1 I *L 0.510932 *C 45.197 43.040
*I *636:A3 I *L 0.590351 *C 44.560 44.864
*N *639:3 *C 44.561 44.864
*N *639:4 *C 44.712 44.864
*N *639:5 *C 44.712 43.053
*N *639:6 *C 44.726 43.040
*N *639:7 *C 45.306 43.040
*N *639:8 *C 45.308 43.040
*N *639:9 *C 45.320 43.026
*N *639:10 *C 45.320 41.078

*CAP
0 *271:Y 0.001
1 *315:A1 0.01436462
2 *636:A3 0.001
3 *639:3 0.004146949
4 *639:4 0.108249
5 *639:5 0.0979249
6 *639:6 0.02447421
7 *639:7 0.02447421
8 *639:8 0.01228922
9 *639:9 0.07932771
10 *639:10 0.07997043

*RES
0 *271:Y *639:10 1
1 *639:10 *639:9 3.480357
2 *639:8 *315:A1 0.1841667
3 *639:9 *639:8 1
4 *639:9 *639:7 0.5
5 *639:7 *639:6 1.0375
6 *639:5 *639:4 3.233036
7 *639:6 *639:5 0.5
8 *639:3 *636:A3 1
9 *639:4 *639:3 0.2696429

*END

*D_NET *1 8.837548 //LENGTH 95.935 LUMPCC 0 DR

*CONN
*P *1 I *L 0 *C 55.504 0.258
*I *109:CLK I *L 0.714381 *C 55.307 5.192
*I *119:CLK I *L 0.714381 *C 51.400 8.536
*I *104:CLK I *L 0.714381 *C 50.595 11.880
*I *118:CLK I *L 0.714381 *C 48.056 8.840
*I *121:CLK I *L 0.714381 *C 52.008 8.840
*I *120:CLK I *L 0.714381 *C 50.184 8.536
*I *122:CLK I *L 0.714381 *C 54.440 11.880
*I *101:CLK I *L 0.714381 *C 53.832 12.184
*I *105:CLK I *L 0.714381 *C 52.656 12.184
*I *123:CLK I *L 0.714381 *C 57.024 15.224
*I *108:CLK I *L 0.714381 *C 55.504 8.536
*I *106:CLK I *L 0.714381 *C 55.960 8.840
*I *116:CLK I *L 0.714381 *C 54.440 2.152
*I *117:CLK I *L 0.714381 *C 50.448 2.152
*I *100:CLK I *L 0.714381 *C 50.139 5.192
*I *110:CLK I *L 0.714381 *C 49.312 2.152
*I *115:CLK I *L 0.714381 *C 59.912 2.152
*I *112:CLK I *L 0.714381 *C 59.152 5.192
*I *107:CLK I *L 0.714381 *C 60.216 8.536
*I *126:CLK I *L 0.714381 *C 59.912 8.840
*I *103:CLK I *L 0.714381 *C 59.411 15.528
*I *102:CLK I *L 0.714381 *C 59.912 11.880
*I *124:CLK I *L 0.714381 *C 60.368 12.184
*I *111:CLK I *L 0.714381 *C 63.864 2.152
*I *153:CLK I *L 0.717204 *C 63.864 5.192
*I *114:CLK I *L 0.714381 *C 63.864 5.496
*I *113:CLK I *L 0.714381 *C 63.864 8.840
*I *125:CLK I *L 0.714381 *C 63.864 11.880
*I *130:CLK I *L 0.714381 *C 63.864 15.224
*I *129:CLK I *L 0.714381 *C 63.363 15.528
*I *128:CLK I *L 0.714381 *C 63.864 18.568
*I *127:CLK I *L 0.714381 *C 63.864 18.872
*N *1:33 *C 55.322 2.000
*N *1:34 *C 63.864 18.858
*N *1:35 *C 63.864 18.568
*N *1:36 *C 63.864 17.213
*N *1:37 *C 63.851 17.200
*N *1:38 *C 63.574 17.200
*N *1:39 *C 63.560 17.187
*N *1:40 *C 63.560 15.680
*N *1:41 *C 63.408 15.528
*N *1:42 *C 63.408 15.528
*N *1:43 *C 63.408 15.668
*N *1:44 *C 63.422 15.680
*N *1:45 *C 63.851 15.680
*N *1:46 *C 63.864 15.667
*N *1:47 *C 63.864 15.224
*N *1:48 *C 63.864 11.880
*N *1:49 *C 63.864 8.840
*N *1:50 *C 63.864 5.496
*N *1:51 *C 63.864 5.192
*N *1:52 *C 63.864 5.040
*N *1:53 *C 64.016 5.040
*N *1:54 *C 64.016 2.152
*N *1:55 *C 63.865 2.152
*N *1:56 *C 63.864 2.292
*N *1:57 *C 63.851 2.304
*N *1:58 *C 60.368 12.171
*N *1:59 *C 59.912 11.894
*N *1:60 *C 59.912 12.032
*N *1:61 *C 59.456 15.528
*N *1:62 *C 59.456 15.514
*N *1:63 *C 59.456 12.046
*N *1:64 *C 59.470 12.032
*N *1:65 *C 60.355 12.032
*N *1:66 *C 60.368 12.019
*N *1:67 *C 59.912 8.828
*N *1:68 *C 59.912 8.688
*N *1:69 *C 59.925 8.688
*N *1:70 *C 60.355 8.688
*N *1:71 *C 60.368 8.688
*N *1:72 *C 60.216 8.523
*N *1:73 *C 60.216 8.080
*N *1:74 *C 60.368 8.080
*N *1:75 *C 59.152 5.179
*N *1:76 *C 59.152 5.040
*N *1:77 *C 59.166 5.040
*N *1:78 *C 60.355 5.040
*N *1:79 *C 60.368 5.040
*N *1:80 *C 60.368 2.304
*N *1:81 *C 59.912 2.165
*N *1:82 *C 59.913 2.304
*N *1:83 *C 59.912 2.304
*N *1:84 *C 49.412 2.152
*N *1:85 *C 49.424 2.166
*N *1:86 *C 49.424 2.303
*N *1:87 *C 49.425 2.304
*N *1:88 *C 50.184 5.192
*N *1:89 *C 50.184 5.179
*N *1:90 *C 50.184 3.824
*N *1:91 *C 50.336 3.824
*N *1:92 *C 50.349 2.152
*N *1:93 *C 50.336 2.165
*N *1:94 *C 50.336 2.317
*N *1:95 *C 50.336 2.304
*N *1:96 *C 54.440 2.152
*N *1:97 *C 54.440 2.292
*N *1:98 *C 54.440 2.304
*N *1:99 *C 55.960 8.828
*N *1:100 *C 55.960 8.688
*N *1:101 *C 55.947 8.688
*N *1:102 *C 55.518 8.688
*N *1:103 *C 55.504 8.675
*N *1:104 *C 55.504 8.510
*N *1:105 *C 55.504 8.384
*N *1:106 *C 57.024 15.211
*N *1:107 *C 57.024 12.350
*N *1:108 *C 57.011 12.336
*N *1:109 *C 52.756 12.184
*N *1:110 *C 52.768 12.184
*N *1:111 *C 52.768 12.324
*N *1:112 *C 52.782 12.336
*N *1:113 *C 53.832 12.184
*N *1:114 *C 53.832 12.324
*N *1:115 *C 53.832 12.336
*N *1:116 *C 55.352 12.336
*N *1:117 *C 55.352 12.322
*N *1:118 *C 54.440 11.867
*N *1:119 *C 54.440 11.438
*N *1:120 *C 54.454 11.424
*N *1:121 *C 55.339 11.424
*N *1:122 *C 55.352 11.424
*N *1:123 *C 50.184 8.524
*N *1:124 *C 50.184 8.384
*N *1:125 *C 50.198 8.384
*N *1:126 *C 52.008 8.840
*N *1:127 *C 52.008 8.979
*N *1:128 *C 51.995 8.992
*N *1:129 *C 48.056 8.840
*N *1:130 *C 48.056 8.979
*N *1:131 *C 48.070 8.992
*N *1:132 *C 50.640 11.880
*N *1:133 *C 50.640 11.867
*N *1:134 *C 50.640 9.005
*N *1:135 *C 50.640 8.992
*N *1:136 *C 51.400 8.992
*N *1:137 *C 51.400 8.979
*N *1:138 *C 51.400 8.550
*N *1:139 *C 51.400 8.396
*N *1:140 *C 51.400 8.384
*N *1:141 *C 55.339 8.384
*N *1:142 *C 55.352 8.384
*N *1:143 *C 55.352 5.192
*N *1:144 *C 55.352 5.192
*N *1:145 *C 55.352 2.317
*N *1:146 *C 55.364 2.304
*N *1:147 *C 55.518 2.304
*N *1:148 *C 55.504 2.291
*N *1:149 *C 55.504 2.014
*N *1:150 *C 55.492 2.000
*N *1:151 *C 55.504 1.987

*CAP
0 *1 0.08371536
1 *109:CLK 0.01028653
2 *119:CLK 0.001
3 *104:CLK 0.01038848
4 *118:CLK 0.001
5 *121:CLK 0.001
6 *120:CLK 0.001
7 *122:CLK 0.001
8 *101:CLK 0.001
9 *105:CLK 0.01477643
10 *123:CLK 0.001
11 *108:CLK 0.001
12 *106:CLK 0.001
13 *116:CLK 0.001
14 *117:CLK 0.01519211
15 *100:CLK 0.0105747
16 *110:CLK 0.01693023
17 *115:CLK 0.001
18 *112:CLK 0.001
19 *107:CLK 0.001
20 *126:CLK 0.001
21 *103:CLK 0.01176414
22 *102:CLK 0.001
23 *124:CLK 0.001
24 *111:CLK 0.001
25 *153:CLK 0.001
26 *114:CLK 0.001
27 *113:CLK 0.001
28 *125:CLK 0.001
29 *130:CLK 0.001
30 *129:CLK 0.01050438
31 *128:CLK 0.001
32 *127:CLK 0.001
33 *1:33 0.01270812
34 *1:34 0.01203765
35 *1:35 0.07519736
36 *1:36 0.0607875
37 *1:37 0.01244714
38 *1:38 0.01244714
39 *1:39 0.07735524
40 *1:40 0.09497745
41 *1:41 0.008428979
42 *1:42 0.01640728
43 *1:43 0.01611046
44 *1:44 0.0235331
45 *1:45 0.0235331
46 *1:46 0.03170009
47 *1:47 0.15737
48 *1:48 0.2713287
49 *1:49 0.2783548
50 *1:50 0.1603581
51 *1:51 0.01973333
52 *1:52 0.01753337
53 *1:53 0.1631381
54 *1:54 0.1647728
55 *1:55 0.02267841
56 *1:56 0.01369696
57 *1:57 0.176808
58 *1:58 0.007175557
59 *1:59 0.006523994
60 *1:60 0.0307239
61 *1:61 0.009688747
62 *1:62 0.1623891
63 *1:63 0.1620923
64 *1:64 0.03642229
65 *1:65 0.03642229
66 *1:66 0.1806894
67 *1:67 0.008458382
68 *1:68 0.00989106
69 *1:69 0.02046237
70 *1:70 0.02046237
71 *1:71 0.1798704
72 *1:72 0.02984619
73 *1:73 0.04225148
74 *1:74 0.1844723
75 *1:75 0.01610874
76 *1:76 0.01754142
77 *1:77 0.05133376
78 *1:78 0.05133376
79 *1:79 0.2802585
80 *1:80 0.1593147
81 *1:81 0.009098354
82 *1:82 0.03253058
83 *1:83 0.3812289
84 *1:84 0.01485483
85 *1:85 0.01503771
86 *1:86 0.01474089
87 *1:87 0.04215731
88 *1:88 0.008499301
89 *1:89 0.07046678
90 *1:90 0.08399256
91 *1:91 0.1108976
92 *1:92 0.01311671
93 *1:93 0.01551214
94 *1:94 0.1146625
95 *1:95 0.2240655
96 *1:96 0.01064503
97 *1:97 0.01207771
98 *1:98 0.2224349
99 *1:99 0.01492082
100 *1:100 0.0163535
101 *1:101 0.02502668
102 *1:102 0.02502668
103 *1:103 0.01352245
104 *1:104 0.03090433
105 *1:105 0.02785431
106 *1:106 0.1351108
107 *1:107 0.1365435
108 *1:108 0.07648192
109 *1:109 0.01270104
110 *1:110 0.01448265
111 *1:111 0.01418583
112 *1:112 0.04225545
113 *1:113 0.01399698
114 *1:114 0.01542965
115 *1:115 0.1055907
116 *1:116 0.1398172
117 *1:117 0.04075316
118 *1:118 0.0231288
119 *1:119 0.02456148
120 *1:120 0.03673464
121 *1:121 0.03673464
122 *1:122 0.1962819
123 *1:123 0.009127029
124 *1:124 0.01055971
125 *1:125 0.05050661
126 *1:126 0.01413322
127 *1:127 0.0155659
128 *1:128 0.02688661
129 *1:129 0.0118592
130 *1:130 0.01329188
131 *1:131 0.1028617
132 *1:132 0.00831308
133 *1:133 0.1554536
134 *1:134 0.1551568
135 *1:135 0.134645
136 *1:136 0.05866982
137 *1:137 0.02677694
138 *1:138 0.03900133
139 *1:139 0.01128485
140 *1:140 0.2194187
141 *1:141 0.1665399
142 *1:142 0.3174293
143 *1:143 0.008211133
144 *1:144 0.2992316
145 *1:145 0.1437017
146 *1:146 0.05227056
147 *1:147 0.213793
148 *1:148 0.01691051
149 *1:149 0.01691104
150 *1:150 0.007966337
151 *1:151 0.08134472

*RES
0 *1 *1:151 3.086607
1 *1:34 *127:CLK 1
2 *1:35 *128:CLK 1
3 *1:35 *1:34 0.5187501
4 *1:47 *130:CLK 1
5 *1:47 *1:46 0.7901786
6 *1:48 *125:CLK 1
7 *1:48 *1:47 5.971429
8 *1:49 *113:CLK 1
9 *1:49 *1:48 5.428572
10 *1:50 *114:CLK 1
11 *1:50 *1:49 5.971429
12 *1:51 *153:CLK 1
13 *1:51 *1:50 0.5428572
14 *1:55 *111:CLK 1
15 *1:55 *1:54 0.2696429
16 *1:36 *1:35 2.41875
17 *1:37 *1:36 0.5
18 *1:39 *1:38 0.5
19 *1:38 *1:37 0.4946429
20 *1:46 *1:45 0.5
21 *1:46 *1:40 0.5428572
22 *1:45 *1:44 0.7660714
23 *1:43 *1:42 0.2325
24 *1:44 *1:43 0.5
25 *1:41 *129:CLK 0.09166668
26 *1:42 *1:41 1
27 *1:58 *124:CLK 1
28 *1:72 *107:CLK 1
29 *1:56 *1:55 0.2325
30 *1:57 *1:56 0.5
31 *1:59 *102:CLK 1
32 *1:71 *1:70 0.5
33 *1:71 *1:66 5.947322
34 *1:70 *1:69 0.7660714
35 *1:68 *1:67 0.2325
36 *1:69 *1:68 0.5
37 *1:67 *126:CLK 1
38 *1:82 *1:81 0.2325
39 *1:82 *1:80 0.8125
40 *1:83 *1:82 0.5
41 *1:83 *1:57 7.033036
42 *1:81 *115:CLK 1
43 *1:66 *1:65 0.5
44 *1:66 *1:60 0.8142858
45 *1:66 *1:58 0.255
46 *1:65 *1:64 1.580357
47 *1:63 *1:62 6.194643
48 *1:64 *1:63 0.5
49 *1:61 *103:CLK 0.09166668
50 *1:62 *1:61 1
51 *1:79 *1:78 0.5
52 *1:79 *1:74 5.428572
53 *1:78 *1:77 2.123214
54 *1:76 *1:75 0.2325
55 *1:77 *1:76 0.5
56 *1:75 *112:CLK 1
57 *1:103 *1:102 0.5
58 *1:102 *1:101 0.7660714
59 *1:100 *1:99 0.2325
60 *1:101 *1:100 0.5
61 *1:99 *106:CLK 1
62 *1:104 *108:CLK 1
63 *1:104 *1:103 0.2758334
64 *1:107 *1:106 5.108929
65 *1:108 *1:107 0.5
66 *1:106 *123:CLK 1
67 *1:117 *1:116 0.5
68 *1:116 *1:115 2.714286
69 *1:116 *1:108 2.961607
70 *1:145 *1:144 5.133036
71 *1:146 *1:145 0.5
72 *1:146 *1:98 1.650893
73 *1:147 *1:146 0.255
74 *1:147 *1:83 7.847322
75 *1:148 *1:147 0.5
76 *1:149 *1:148 0.4946429
77 *1:150 *1:149 0.5
78 *1:150 *1:33 0.2825
79 *1:151 *1:150 0.5
80 *1:143 *109:CLK 0.09166668
81 *1:144 *1:143 1
82 *1:144 *1:142 5.7
83 *1:122 *1:121 0.5